Circuit: * D:\OneDrive - The University of Melbourne\.3.ESD(ELEN90053_2022_SM2)\3.Project\ELEN90053_DSOdesign\sim\Frontend.asc

WARNING: Less than two connections to node N007.  This node is used by R5.
WARNING: Less than two connections to node N013.  This node is used by R26.
WARNING: Less than two connections to node N023.  This node is used by R29.
WARNING: Less than two connections to node N035.  This node is used by R38.
WARNING: Less than two connections to node N051.  This node is used by R47.
Early termination of direct N-R iteration.
Direct Newton iteration failed to find .op point.  (Use ".option noopiter" to skip.)
Starting Gmin stepping
Gmin = 10
Gmin = 1.07374
vernier = 0.5
vernier = 0.25
vernier = 0.125
vernier = 0.0625
vernier = 0.03125
Gmin = 1.0412
vernier = 0.015625
vernier = 0.0078125
Gmin = 1.0132
vernier = 0.00390625
vernier = 0.00195313
Gmin = 1.00827
vernier = 0.00260417
vernier = 0.00130208
Gmin = 1.00515
vernier = 0.000651042
vernier = 0.000868055
vernier = 0.000434028
Gmin = 1.00434
vernier = 0.000578703
vernier = 0.000434027
Gmin = 1.00339
Gmin = 0
Gmin stepping failed

Starting source stepping with srcstepmethod=0
Source Step = 3.0303%
Source Step = 33.3333%
Source Step = 51.5625%
vernier = 0.00390625
Starting source stepping with srcstepmethod=1
Source Step = 3.0303%
Source Step = 33.3333%
Source Step = 58.3333%
Source Step = 65.9091%
Source Step = 73.4848%
Source Step = 81.0606%
Source Step = 88.6364%
Source Step = 96.2121%
vernier = 0.375
Source Step = 98.7689%
Source Step = 100%
Source Step = 100%
Source stepping succeeded in finding the operating point.


Date: Sun Sep 04 11:34:51 2022
Total elapsed time: 48.945 seconds.

tnom = 27
temp = 27
method = trap
totiter = 8592
traniter = 0
tranpoints = 0
accept = 0
rejected = 0
matrix size = 516
fillins = 2215
solver = Normal
Matrix Compiler1:   14178 opcodes
Matrix Compiler2: 87.09 KB object code size  53.0/46.8/[19.6]

