Circuit: * D:\OneDrive - The University of Melbourne\.3.ESD(ELEN90053_2022_SM2)\3.Project\ELEN90053_DSOdesign\sim\Frontend_final.asc

C10: both pins shorted together -- ignoring.
Early termination of direct N-R iteration.
Direct Newton iteration failed to find .op point.  (Use ".option noopiter" to skip.)
Starting Gmin stepping
Gmin = 10
Gmin = 1.07374
vernier = 0.5
vernier = 0.25
vernier = 0.125
vernier = 0.0625
vernier = 0.03125
Gmin = 1.0412
vernier = 0.015625
vernier = 0.0078125
Gmin = 1.0132
vernier = 0.00390625
vernier = 0.00195313
Gmin = 1.00827
vernier = 0.00260417
vernier = 0.00130208
Gmin = 1.00515
vernier = 0.000651042
vernier = 0.000868055
vernier = 0.000434028
Gmin = 1.00434
vernier = 0.000578703
vernier = 0.000434027
Gmin = 1.00339
Gmin = 0
Gmin stepping failed

Starting source stepping with srcstepmethod=0
Source Step = 3.0303%
Source Step = 33.3333%
Source Step = 51.5625%
vernier = 0.00390625
Source Step = 51.5418%
Source Step = 51.5714%
Source Step = 51.601%
Source Step = 51.6306%
Source Step = 51.6602%
vernier = 0.00146484
Source Step = 51.6957%
Source Step = 51.7401%
Source Step = 51.7844%
Source Step = 51.8288%
Source Step = 51.8732%
vernier = 0.00219727
Source Step = 51.9243%
Source Step = 51.9909%
Source Step = 52.0574%
Source Step = 52.124%
Source Step = 52.1906%
vernier = 0.0032959
Source Step = 52.2638%
Source Step = 52.3637%
Source Step = 52.4636%
Source Step = 52.5635%
Source Step = 52.6634%
vernier = 0.00494385
Source Step = 52.7682%
Source Step = 52.918%
Source Step = 53.0678%
Source Step = 53.2177%
Source Step = 53.3675%
Source Step = 53.5173%
vernier = 0.00741577
Source Step = 53.742%
Source Step = 53.9667%
Source Step = 54.1915%
Source Step = 54.4162%
Source Step = 54.6409%
vernier = 0.0111237
Source Step = 54.9667%
Source Step = 55.3038%
Source Step = 55.6409%
Source Step = 55.978%
Source Step = 56.3151%
vernier = 0.0166855
Source Step = 56.787%
Source Step = 57.2926%
Source Step = 57.7982%
Source Step = 58.3038%
Source Step = 58.8095%
vernier = 0.0250282
Source Step = 59.492%
Source Step = 60.2505%
Source Step = 61.0089%
Source Step = 61.7673%
Source Step = 62.5258%
vernier = 0.0375423
Source Step = 63.5117%
Source Step = 64.6494%
Source Step = 65.787%
Source Step = 66.9247%
Source Step = 68.0623%
vernier = 0.0563135
Source Step = 69.4844%
Source Step = 71.1908%
Source Step = 72.8973%
Source Step = 74.6038%
Source Step = 76.3103%
vernier = 0.0844703
Source Step = 78.358%
Source Step = 80.9177%
Source Step = 83.4774%
Source Step = 86.0371%
Source Step = 88.5968%
vernier = 0.126705
Source Step = 91.5405%
Source Step = 95.3801%
Source Step = 99.2196%
Source stepping succeeded in finding the operating point.

Heightened Def Con from 0.0304997 to 0.0304997

Date: Mon Sep 05 03:29:28 2022
Total elapsed time: 24.458 seconds.

tnom = 27
temp = 27
method = modified trap
totiter = 376539
traniter = 368274
tranpoints = 129835
accept = 91466
rejected = 38370
matrix size = 233
fillins = 1004
solver = Normal
Thread vector: 29.0/19.4[8] 9.6/6.3[4] 4.2/24.6[1] 1.3/2.4[1]  2592/500
Matrix Compiler1: 113.34 KB object code size  23.2/13.2/[5.2]
Matrix Compiler2: 39.00 KB object code size  4.7/5.4/[1.7]

